units(length='cm', time='s', quantity='mol', act_energy='cal/mol')

ideal_gas(name='gas',
          elements="C H O",
          species="""COAL1   GCOAL1  GCH2    CHAR    H2      CH2     CHARH
                     CH4     TAR1    VTAR1   COAL2   GBTX2   GCH4    GCOH2
                     GCO2S   GH2O    GCOL    CO      H2O     TAR2    VTAR2
                     GCO2TS  COAL3   CH3O    CO2     GCO2    GCOAL3  TAR3
                     VTAR3   BTX2    CHARG   ASH     ACQUA""",
          reactions='all',
          initial_state=state(temperature=300.0, pressure=OneAtm))

#-------------------------------------------------------------------------------
# Species data
#-------------------------------------------------------------------------------

species(name=u'COAL1',
        atoms='H:11 C:12',
        thermo=(NASA([300.00, 1000.00],
                     [ 3.29812400E+00,  8.24944120E-04, -8.14301470E-07,
                      -9.47543430E-11,  4.13487200E-13, -1.01252100E+03,
                      -3.29409400E+00]),
                NASA([1000.00, 5000.00],
                     [ 2.99142300E+00,  7.00064410E-04, -5.63382800E-08,
                      -9.23157820E-12,  1.58275200E-15, -8.35033800E+02,
                      -1.35511000E+00])))

species(name=u'GCOAL1',
        atoms='H:8 C:10',
        thermo=(NASA([300.00, 1000.00],
                     [ 3.29812400E+00,  8.24944120E-04, -8.14301470E-07,
                      -9.47543430E-11,  4.13487200E-13, -1.01252100E+03,
                      -3.29409400E+00]),
                NASA([1000.00, 5000.00],
                     [ 2.99142300E+00,  7.00064410E-04, -5.63382800E-08,
                      -9.23157820E-12,  1.58275200E-15, -8.35033800E+02,
                      -1.35511000E+00])))

species(name=u'GCH2',
        atoms='H:2 C:1',
        thermo=(NASA([300.00, 1000.00],
                     [ 3.29812400E+00,  8.24944120E-04, -8.14301470E-07,
                      -9.47543430E-11,  4.13487200E-13, -1.01252100E+03,
                      -3.29409400E+00]),
                NASA([1000.00, 5000.00],
                     [ 2.99142300E+00,  7.00064410E-04, -5.63382800E-08,
                      -9.23157820E-12,  1.58275200E-15, -8.35033800E+02,
                      -1.35511000E+00])))

species(name=u'CHAR',
        atoms='C:1',
        thermo=(NASA([300.00, 1000.00],
                     [ 3.29812400E+00,  8.24944120E-04, -8.14301470E-07,
                      -9.47543430E-11,  4.13487200E-13, -1.01252100E+03,
                      -3.29409400E+00]),
                NASA([1000.00, 5000.00],
                     [ 2.99142300E+00,  7.00064410E-04, -5.63382800E-08,
                      -9.23157820E-12,  1.58275200E-15, -8.35033800E+02,
                      -1.35511000E+00])))

species(name=u'H2',
        atoms='H:2',
        thermo=(NASA([300.00, 1000.00],
                     [ 3.29812400E+00,  8.24944120E-04, -8.14301470E-07,
                      -9.47543430E-11,  4.13487200E-13, -1.01252100E+03,
                      -3.29409400E+00]),
                NASA([1000.00, 5000.00],
                     [ 2.99142300E+00,  7.00064410E-04, -5.63382800E-08,
                      -9.23157820E-12,  1.58275200E-15, -8.35033800E+02,
                      -1.35511000E+00])))

species(name=u'CH2',
        atoms='H:2 C:1',
        thermo=(NASA([300.00, 1000.00],
                     [ 3.29812400E+00,  8.24944120E-04, -8.14301470E-07,
                      -9.47543430E-11,  4.13487200E-13, -1.01252100E+03,
                      -3.29409400E+00]),
                NASA([1000.00, 5000.00],
                     [ 2.99142300E+00,  7.00064410E-04, -5.63382800E-08,
                      -9.23157820E-12,  1.58275200E-15, -8.35033800E+02,
                      -1.35511000E+00])))

species(name=u'CHARH',
        atoms='H:1 C:2',
        thermo=(NASA([300.00, 1000.00],
                     [ 3.29812400E+00,  8.24944120E-04, -8.14301470E-07,
                      -9.47543430E-11,  4.13487200E-13, -1.01252100E+03,
                      -3.29409400E+00]),
                NASA([1000.00, 5000.00],
                     [ 2.99142300E+00,  7.00064410E-04, -5.63382800E-08,
                      -9.23157820E-12,  1.58275200E-15, -8.35033800E+02,
                      -1.35511000E+00])))

species(name=u'CH4',
        atoms='H:4 C:1',
        thermo=(NASA([300.00, 1000.00],
                     [ 3.29812400E+00,  8.24944120E-04, -8.14301470E-07,
                      -9.47543430E-11,  4.13487200E-13, -1.01252100E+03,
                      -3.29409400E+00]),
                NASA([1000.00, 5000.00],
                     [ 2.99142300E+00,  7.00064410E-04, -5.63382800E-08,
                      -9.23157820E-12,  1.58275200E-15, -8.35033800E+02,
                      -1.35511000E+00])))

species(name=u'TAR1',
        atoms='H:8 C:10',
        thermo=(NASA([300.00, 1000.00],
                     [ 3.29812400E+00,  8.24944120E-04, -8.14301470E-07,
                      -9.47543430E-11,  4.13487200E-13, -1.01252100E+03,
                      -3.29409400E+00]),
                NASA([1000.00, 5000.00],
                     [ 2.99142300E+00,  7.00064410E-04, -5.63382800E-08,
                      -9.23157820E-12,  1.58275200E-15, -8.35033800E+02,
                      -1.35511000E+00])))

species(name=u'VTAR1',
        atoms='H:8 C:10',
        thermo=(NASA([300.00, 1000.00],
                     [ 3.29812400E+00,  8.24944120E-04, -8.14301470E-07,
                      -9.47543430E-11,  4.13487200E-13, -1.01252100E+03,
                      -3.29409400E+00]),
                NASA([1000.00, 5000.00],
                     [ 2.99142300E+00,  7.00064410E-04, -5.63382800E-08,
                      -9.23157820E-12,  1.58275200E-15, -8.35033800E+02,
                      -1.35511000E+00])))

species(name=u'COAL2',
        atoms='H:10 C:14 O:1',
        thermo=(NASA([300.00, 1000.00],
                     [ 3.29812400E+00,  8.24944120E-04, -8.14301470E-07,
                      -9.47543430E-11,  4.13487200E-13, -1.01252100E+03,
                      -3.29409400E+00]),
                NASA([1000.00, 5000.00],
                     [ 2.99142300E+00,  7.00064410E-04, -5.63382800E-08,
                      -9.23157820E-12,  1.58275200E-15, -8.35033800E+02,
                      -1.35511000E+00])))

species(name=u'GBTX2',
        atoms='H:14 C:13',
        thermo=(NASA([300.00, 1000.00],
                     [ 3.29812400E+00,  8.24944120E-04, -8.14301470E-07,
                      -9.47543430E-11,  4.13487200E-13, -1.01252100E+03,
                      -3.29409400E+00]),
                NASA([1000.00, 5000.00],
                     [ 2.99142300E+00,  7.00064410E-04, -5.63382800E-08,
                      -9.23157820E-12,  1.58275200E-15, -8.35033800E+02,
                      -1.35511000E+00])))

species(name=u'GCH4',
        atoms='H:4 C:1',
        thermo=(NASA([300.00, 1000.00],
                     [ 3.29812400E+00,  8.24944120E-04, -8.14301470E-07,
                      -9.47543430E-11,  4.13487200E-13, -1.01252100E+03,
                      -3.29409400E+00]),
                NASA([1000.00, 5000.00],
                     [ 2.99142300E+00,  7.00064410E-04, -5.63382800E-08,
                      -9.23157820E-12,  1.58275200E-15, -8.35033800E+02,
                      -1.35511000E+00])))

species(name=u'GCOH2',
        atoms='H:2 C:1 O:1',
        thermo=(NASA([300.00, 1000.00],
                     [ 3.29812400E+00,  8.24944120E-04, -8.14301470E-07,
                      -9.47543430E-11,  4.13487200E-13, -1.01252100E+03,
                      -3.29409400E+00]),
                NASA([1000.00, 5000.00],
                     [ 2.99142300E+00,  7.00064410E-04, -5.63382800E-08,
                      -9.23157820E-12,  1.58275200E-15, -8.35033800E+02,
                      -1.35511000E+00])))

species(name=u'GCO2S',
        atoms='C:1 O:2',
        thermo=(NASA([300.00, 1000.00],
                     [ 3.29812400E+00,  8.24944120E-04, -8.14301470E-07,
                      -9.47543430E-11,  4.13487200E-13, -1.01252100E+03,
                      -3.29409400E+00]),
                NASA([1000.00, 5000.00],
                     [ 2.99142300E+00,  7.00064410E-04, -5.63382800E-08,
                      -9.23157820E-12,  1.58275200E-15, -8.35033800E+02,
                      -1.35511000E+00])))

species(name=u'GH2O',
        atoms='H:2 O:1',
        thermo=(NASA([300.00, 1000.00],
                     [ 3.29812400E+00,  8.24944120E-04, -8.14301470E-07,
                      -9.47543430E-11,  4.13487200E-13, -1.01252100E+03,
                      -3.29409400E+00]),
                NASA([1000.00, 5000.00],
                     [ 2.99142300E+00,  7.00064410E-04, -5.63382800E-08,
                      -9.23157820E-12,  1.58275200E-15, -8.35033800E+02,
                      -1.35511000E+00])))

species(name=u'GCOL',
        atoms='C:1 O:1',
        thermo=(NASA([300.00, 1000.00],
                     [ 3.29812400E+00,  8.24944120E-04, -8.14301470E-07,
                      -9.47543430E-11,  4.13487200E-13, -1.01252100E+03,
                      -3.29409400E+00]),
                NASA([1000.00, 5000.00],
                     [ 2.99142300E+00,  7.00064410E-04, -5.63382800E-08,
                      -9.23157820E-12,  1.58275200E-15, -8.35033800E+02,
                      -1.35511000E+00])))

species(name=u'CO',
        atoms='C:1 O:1',
        thermo=(NASA([300.00, 1000.00],
                     [ 3.29812400E+00,  8.24944120E-04, -8.14301470E-07,
                      -9.47543430E-11,  4.13487200E-13, -1.01252100E+03,
                      -3.29409400E+00]),
                NASA([1000.00, 5000.00],
                     [ 2.99142300E+00,  7.00064410E-04, -5.63382800E-08,
                      -9.23157820E-12,  1.58275200E-15, -8.35033800E+02,
                      -1.35511000E+00])))

species(name=u'H2O',
        atoms='H:2 O:1',
        thermo=(NASA([300.00, 1000.00],
                     [ 3.29812400E+00,  8.24944120E-04, -8.14301470E-07,
                      -9.47543430E-11,  4.13487200E-13, -1.01252100E+03,
                      -3.29409400E+00]),
                NASA([1000.00, 5000.00],
                     [ 2.99142300E+00,  7.00064410E-04, -5.63382800E-08,
                      -9.23157820E-12,  1.58275200E-15, -8.35033800E+02,
                      -1.35511000E+00])))

species(name=u'TAR2',
        atoms='H:10 C:14 O:1',
        thermo=(NASA([300.00, 1000.00],
                     [ 3.29812400E+00,  8.24944120E-04, -8.14301470E-07,
                      -9.47543430E-11,  4.13487200E-13, -1.01252100E+03,
                      -3.29409400E+00]),
                NASA([1000.00, 5000.00],
                     [ 2.99142300E+00,  7.00064410E-04, -5.63382800E-08,
                      -9.23157820E-12,  1.58275200E-15, -8.35033800E+02,
                      -1.35511000E+00])))

species(name=u'VTAR2',
        atoms='H:10 C:14 O:1',
        thermo=(NASA([300.00, 1000.00],
                     [ 3.29812400E+00,  8.24944120E-04, -8.14301470E-07,
                      -9.47543430E-11,  4.13487200E-13, -1.01252100E+03,
                      -3.29409400E+00]),
                NASA([1000.00, 5000.00],
                     [ 2.99142300E+00,  7.00064410E-04, -5.63382800E-08,
                      -9.23157820E-12,  1.58275200E-15, -8.35033800E+02,
                      -1.35511000E+00])))

species(name=u'GCO2TS',
        atoms='C:1 O:2',
        thermo=(NASA([300.00, 1000.00],
                     [ 3.29812400E+00,  8.24944120E-04, -8.14301470E-07,
                      -9.47543430E-11,  4.13487200E-13, -1.01252100E+03,
                      -3.29409400E+00]),
                NASA([1000.00, 5000.00],
                     [ 2.99142300E+00,  7.00064410E-04, -5.63382800E-08,
                      -9.23157820E-12,  1.58275200E-15, -8.35033800E+02,
                      -1.35511000E+00])))

species(name=u'COAL3',
        atoms='H:12 C:12 O:5',
        thermo=(NASA([300.00, 1000.00],
                     [ 3.29812400E+00,  8.24944120E-04, -8.14301470E-07,
                      -9.47543430E-11,  4.13487200E-13, -1.01252100E+03,
                      -3.29409400E+00]),
                NASA([1000.00, 5000.00],
                     [ 2.99142300E+00,  7.00064410E-04, -5.63382800E-08,
                      -9.23157820E-12,  1.58275200E-15, -8.35033800E+02,
                      -1.35511000E+00])))

species(name=u'CH3O',
        atoms='H:3 C:1 O:1',
        thermo=(NASA([300.00, 1000.00],
                     [ 3.29812400E+00,  8.24944120E-04, -8.14301470E-07,
                      -9.47543430E-11,  4.13487200E-13, -1.01252100E+03,
                      -3.29409400E+00]),
                NASA([1000.00, 5000.00],
                     [ 2.99142300E+00,  7.00064410E-04, -5.63382800E-08,
                      -9.23157820E-12,  1.58275200E-15, -8.35033800E+02,
                      -1.35511000E+00])))

species(name=u'CO2',
        atoms='C:1 O:2',
        thermo=(NASA([300.00, 1000.00],
                     [ 3.29812400E+00,  8.24944120E-04, -8.14301470E-07,
                      -9.47543430E-11,  4.13487200E-13, -1.01252100E+03,
                      -3.29409400E+00]),
                NASA([1000.00, 5000.00],
                     [ 2.99142300E+00,  7.00064410E-04, -5.63382800E-08,
                      -9.23157820E-12,  1.58275200E-15, -8.35033800E+02,
                      -1.35511000E+00])))

species(name=u'GCO2',
        atoms='C:1 O:2',
        thermo=(NASA([300.00, 1000.00],
                     [ 3.29812400E+00,  8.24944120E-04, -8.14301470E-07,
                      -9.47543430E-11,  4.13487200E-13, -1.01252100E+03,
                      -3.29409400E+00]),
                NASA([1000.00, 5000.00],
                     [ 2.99142300E+00,  7.00064410E-04, -5.63382800E-08,
                      -9.23157820E-12,  1.58275200E-15, -8.35033800E+02,
                      -1.35511000E+00])))

species(name=u'GCOAL3',
        atoms='H:12 C:12 O:5',
        thermo=(NASA([300.00, 1000.00],
                     [ 3.29812400E+00,  8.24944120E-04, -8.14301470E-07,
                      -9.47543430E-11,  4.13487200E-13, -1.01252100E+03,
                      -3.29409400E+00]),
                NASA([1000.00, 5000.00],
                     [ 2.99142300E+00,  7.00064410E-04, -5.63382800E-08,
                      -9.23157820E-12,  1.58275200E-15, -8.35033800E+02,
                      -1.35511000E+00])))

species(name=u'TAR3',
        atoms='H:10 C:11 O:2',
        thermo=(NASA([300.00, 1000.00],
                     [ 3.29812400E+00,  8.24944120E-04, -8.14301470E-07,
                      -9.47543430E-11,  4.13487200E-13, -1.01252100E+03,
                      -3.29409400E+00]),
                NASA([1000.00, 5000.00],
                     [ 2.99142300E+00,  7.00064410E-04, -5.63382800E-08,
                      -9.23157820E-12,  1.58275200E-15, -8.35033800E+02,
                      -1.35511000E+00])))

species(name=u'VTAR3',
        atoms='H:10 C:11 O:2',
        thermo=(NASA([300.00, 1000.00],
                     [ 3.29812400E+00,  8.24944120E-04, -8.14301470E-07,
                      -9.47543430E-11,  4.13487200E-13, -1.01252100E+03,
                      -3.29409400E+00]),
                NASA([1000.00, 5000.00],
                     [ 2.99142300E+00,  7.00064410E-04, -5.63382800E-08,
                      -9.23157820E-12,  1.58275200E-15, -8.35033800E+02,
                      -1.35511000E+00])))

species(name=u'BTX2',
        atoms='H:14 C:13',
        thermo=(NASA([300.00, 1000.00],
                     [ 3.29812400E+00,  8.24944120E-04, -8.14301470E-07,
                      -9.47543430E-11,  4.13487200E-13, -1.01252100E+03,
                      -3.29409400E+00]),
                NASA([1000.00, 5000.00],
                     [ 2.99142300E+00,  7.00064410E-04, -5.63382800E-08,
                      -9.23157820E-12,  1.58275200E-15, -8.35033800E+02,
                      -1.35511000E+00])))

species(name=u'CHARG',
        atoms='C:1',
        thermo=(NASA([300.00, 1000.00],
                     [ 3.29812400E+00,  8.24944120E-04, -8.14301470E-07,
                      -9.47543430E-11,  4.13487200E-13, -1.01252100E+03,
                      -3.29409400E+00]),
                NASA([1000.00, 5000.00],
                     [ 2.99142300E+00,  7.00064410E-04, -5.63382800E-08,
                      -9.23157820E-12,  1.58275200E-15, -8.35033800E+02,
                      -1.35511000E+00])))

species(name=u'ASH',
        atoms='C:1',
        thermo=(NASA([300.00, 1000.00],
                     [ 3.29812400E+00,  8.24944120E-04, -8.14301470E-07,
                      -9.47543430E-11,  4.13487200E-13, -1.01252100E+03,
                      -3.29409400E+00]),
                NASA([1000.00, 5000.00],
                     [ 2.99142300E+00,  7.00064410E-04, -5.63382800E-08,
                      -9.23157820E-12,  1.58275200E-15, -8.35033800E+02,
                      -1.35511000E+00])))

species(name=u'ACQUA',
        atoms='H:2 O:1',
        thermo=(NASA([300.00, 1000.00],
                     [ 3.29812400E+00,  8.24944120E-04, -8.14301470E-07,
                      -9.47543430E-11,  4.13487200E-13, -1.01252100E+03,
                      -3.29409400E+00]),
                NASA([1000.00, 5000.00],
                     [ 2.99142300E+00,  7.00064410E-04, -5.63382800E-08,
                      -9.23157820E-12,  1.58275200E-15, -8.35033800E+02,
                      -1.35511000E+00])))

#-------------------------------------------------------------------------------
# Reaction data
#-------------------------------------------------------------------------------

# Reaction 1
reaction('COAL1 => GCOAL1 + GCH2 + CHAR + 0.5 H2', [5.000000e+09, 0.0, 35000.0])

# Reaction 2
reaction('COAL1 => GCOAL1 + CH2 + CHAR + 0.5 H2', [1.000000e+15, 0.0, 65000.0])

# Reaction 3
reaction('GCOAL1 => 4 CHARH + 1.25 CHAR + 0.75 CH4 + 0.5 H2', [2.000000e+08, 0.0, 40000.0])

# Reaction 4
reaction('GCOAL1 => TAR1', [1.000000e+08, 0.0, 40000.0])

# Reaction 5
reaction('GCOAL1 => 4 CHARH + CHAR + CH4', [1.000000e+14, 0.0, 75000.0])

# Reaction 6
reaction('GCOAL1 => VTAR1', [1.000000e+14, 0.0, 75000.0])

# Reaction 7
reaction('TAR1 => VTAR1', [2.500000e+12, 0.0, 50000.0])

# Reaction 8
reaction('TAR1 + CHARH => 5 CHARH + CHAR + CH4', [2.500000e+10, 0.0, 32500.0])

# Reaction 9
reaction('TAR1 + CHAR => 4 CHARH + 2 CHAR + CH4', [2.500000e+10, 0.0, 32500.0])

# Reaction 10
reaction('COAL2 => 2.0 CHAR + 3.94 CHARH + 0.25 COAL1 + 0.02 GBTX2 + 0.31 GCH4 + 0.11 GCH2 + 0.11 GCOH2 + 0.15 GCO2S + 0.41 GH2O + 0.18 GCOL + 0.265 H2', [6.000000e+10, 0.0, 36000.0])

# Reaction 11
reaction('COAL2 => 1.81 CHAR + 3.73 CHARH + 0.21 COAL1 + 0.08 GBTX2 + 0.27 CH4 + 0.5 CO + 0.1 H2O + 0.3 GCOH2 + 0.48 H2 + 0.1 GCOL', [4.000000e+18, 0.0, 63000.0])

# Reaction 12
reaction('COAL2 => TAR2', [5.000000e+10, 0.0, 36000.0])

# Reaction 13
reaction('COAL2 => VTAR2', [4.000000e+17, 0.0, 63000.0])

# Reaction 14
reaction('TAR2 => VTAR2', [2.400000e+09, 0.0, 39000.0])

# Reaction 15
reaction('TAR2 + CHARH => 7.0 CHARH + 1.5 CHAR + GH2O + 0.5 CH4', [4.500000e+08, 0.0, 30000.0])

# Reaction 16
reaction('TAR2 + GCO2TS => GCO2TS + 0.15 GCO2S + 1.94 CHAR + 4.0 CHARH + 0.25 COAL1 + 0.02 GBTX2 + 0.3 GCH4 + 0.05 GCH2 + 0.1 GCOH2 + 0.4 GH2O + 0.2 GCOL + 0.335 H2', [1.500000e+11, 0.0, 30000.0])

# Reaction 17
reaction('COAL3 => 2.73 CHAR + 1.8 CHARH + 0.22 COAL1 + 0.04 GBTX2 + 0.2 CH3O + 0.1 GCH4 + 0.11 GCH2 + 0.2 H2 + 0.6 GCOH2 + 2.2 GH2O + 0.1 CO2 + 0.38 GCO2 + 0.02 GCO2TS + GCOL', [2.000000e+10, 0.0, 33000.0])

# Reaction 18
reaction('COAL3 => GCOAL3', [5.000000e+18, 0.0, 61000.0])

# Reaction 19
reaction('GCOAL3 => CHARH + 2.23 CHAR + 1.9 CO + 0.25 CH3O + 0.17 CH4 + 0.74 CH2 + 0.5 CO2 + 0.65 GCOH2 + 0.08 GBTX2 + 0.21 COAL1 + 1.2 H2O + 0.48 H2', [1.200000e+08, 0.0, 30000.0])

# Reaction 20
reaction('COAL3 => TAR3 + GCO2 + H2O', [1.600000e+09, 0.0, 33000.0])

# Reaction 21
reaction('COAL3 => VTAR3 + CO2 + H2O', [2.000000e+18, 0.0, 61000.0])

# Reaction 22
reaction('TAR3 => VTAR3', [5.000000e+09, 0.0, 32500.0])

# Reaction 23
reaction('TAR3 + CHARH => 4 CHARH + 2.5 CHAR + 0.2 GCH4 + 2 GCOH2 + 0.8 H2 + 0.3 GCH2', [1.400000e+11, 0.0, 30000.0])

# Reaction 24
reaction('GBTX2 => BTX2', [4.000000e+12, 0.0, 48000.0])

# Reaction 25
reaction('GCH4 => CH4', [1.000000e+03, 0.0, 17000.0])

# Reaction 26
reaction('GCH2 => CH2', [1.000000e+03, 0.0, 17000.0])

# Reaction 27
reaction('GCO2 => CO2', [1.000000e+03, 0.0, 18000.0])

# Reaction 28
reaction('GCO2S => CO2', [1.000000e+02, 0.0, 18000.0])

# Reaction 29
reaction('GCO2S => 0.01 GCO2S + 0.99 CO2', [5.000000e+11, 0.0, 65000.0])

# Reaction 30
reaction('GH2O => H2O', [1.000000e+03, 0.0, 18000.0])

# Reaction 31
reaction('GH2O => 0.01 GH2O + 0.99 H2O', [5.000000e+13, 0.0, 60000.0])

# Reaction 32
reaction('GCOH2 => GCOL + H2', [1.500000e+09, 0.0, 57000.0])

# Reaction 33
reaction('GCOL => CO', [3.000000e+02, 0.0, 20000.0])

# Reaction 34
reaction('CHARH => 2 CHAR + 0.5 H2', [1.000000e+11, 0.0, 80000.0])

# Reaction 35
reaction('CHAR => CHARG', [3.000000e+03, 0.0, 50000.0])

# Reaction 36
reaction('CHAR => 0.99 CHARG + 0.01 CHAR', [1.000000e+11, 0.0, 110000.0])

# Reaction 37
reaction('ASH => ASH', [1.000000e+00, 0.0, 0.0])

# Reaction 38
reaction('ACQUA => H2O', [1.000000e+00, 1.0, 7100.0])
#  ABSTRACTION REACTIONS
